LTspice 24.0.12 for Windows
Circuit: * C:\Users\calvi\OneDrive - University of Pittsburgh\EGR - Undergraduate Research\Audio Processing\BSS_Microphone_System\Speaker\LTSpice Circuit\Speaker output.asc
Start Time: Sun Feb 16 08:51:58 2025
Warning: Multiple definitions of model "nmos01" Type: Mos1
Warning: Multiple definitions of model "pmos01" Type: Mos1
solver = Normal
Maximum thread count: 12
tnom = 27
temp = 27
method = modified trap
WARNING: Less than two connections to node vout.  This node is used by r5.
u2:_u6:dd1: Emission coefficient, N=0.05, too small, limited to 0.1
Direct Newton iteration for .op point succeeded.
Heightened Def Con from 0.000326458 to 0.000326473
Heightened Def Con from 0.000326481 to 0.000326481
Heightened Def Con from 0.000673537 to 0.000673548
Heightened Def Con from 0.000673701 to 0.000673701
Heightened Def Con from 0.000673701 to 0.000673702
Heightened Def Con from 0.00132695 to 0.00132696
Heightened Def Con from 0.00132697 to 0.00132698
Heightened Def Con from 0.00167199 to 0.00167201
Heightened Def Con from 0.00233086 to 0.00233088
Heightened Def Con from 0.00233089 to 0.00233089
Heightened Def Con from 0.00332801 to 0.00332802
Heightened Def Con from 0.00332802 to 0.00332802
Heightened Def Con from 0.00332802 to 0.00332803
Heightened Def Con from 0.00367307 to 0.00367307
Heightened Def Con from 0.00367323 to 0.00367323
Heightened Def Con from 0.00367323 to 0.00367323
Heightened Def Con from 0.00432649 to 0.0043265
Heightened Def Con from 0.00432651 to 0.00432651
Heightened Def Con from 0.00467355 to 0.00467356
Heightened Def Con from 0.00467372 to 0.00467372
Heightened Def Con from 0.00532643 to 0.00532644
Heightened Def Con from 0.00567363 to 0.00567365
Heightened Def Con from 0.00632638 to 0.0063264
Heightened Def Con from 0.00632641 to 0.00632641
Heightened Def Con from 0.00667367 to 0.00667369
Heightened Def Con from 0.00667382 to 0.00667382
Heightened Def Con from 0.00732636 to 0.00732638
Heightened Def Con from 0.00732639 to 0.00732639
Heightened Def Con from 0.00767368 to 0.00767369
Heightened Def Con from 0.00767383 to 0.00767383
Heightened Def Con from 0.00832637 to 0.00832639
Heightened Def Con from 0.0083264 to 0.0083264
Heightened Def Con from 0.0083264 to 0.0083264
Heightened Def Con from 0.0086738 to 0.0086738
Heightened Def Con from 0.00932643 to 0.00932643
Heightened Def Con from 0.00967362 to 0.00967363
Heightened Def Con from 0.0103265 to 0.0103265
Heightened Def Con from 0.0103265 +to 0.0103265
Heightened Def Con from 0.0106737 to 0.0106737
Heightened Def Con from 0.0113269 to 0.011327
Heightened Def Con from 0.011327 to 0.011327
Heightened Def Con from 0.011672 to 0.0116721
Heightened Def Con from 0.0116722 to 0.0116722
Heightened Def Con from 0.0123309 to 0.0123309
Heightened Def Con from 0.0123309 to 0.0123309
Heightened Def Con from 0.0126692 to 0.0126693
Heightened Def Con from 0.0126693 to 0.0126693
Heightened Def Con from 0.0126693 to 0.0126693
Heightened Def Con from 0.013328 to 0.013328
Heightened Def Con from 0.013328 to 0.013328
Heightened Def Con from 0.013328 to 0.013328
Heightened Def Con from 0.013673 to 0.013673
Heightened Def Con from 0.0136732 to 0.0136732
Heightened Def Con from 0.0143265 to 0.0143265
Heightened Def Con from 0.0143265 to 0.0143265
Heightened Def Con from 0.0146737 to 0.0146737
Heightened Def Con from 0.0153264 to 0.0153264
Heightened Def Con from 0.0153264 to 0.0153265
Heightened Def Con from 0.0156736 to 0.0156736
Heightened Def Con from 0.0156737 to 0.0156737
Heightened Def Con from 0.0163264 to 0.0163264
Heightened Def Con from 0.0163264 to 0.0163264
Heightened Def Con from 0.0163264 to 0.0163264
Heightened Def Con from 0.0166736 to 0.0166737
Heightened Def Con from 0.0166738 to 0.0166738
Heightened Def Con from 0.0166738 to 0.0166738
Heightened Def Con from 0.0173264 to 0.0173264
Heightened Def Con from 0.0176737 to 0.0176737
Heightened Def Con from 0.0176738 to 0.0176738
Heightened Def Con from 0.0183264 to 0.0183264
Heightened Def Con from 0.0183264 to 0.0183264
Heightened Def Con from 0.0186736 to 0.0186736
Heightened Def Con from 0.0186738 to 0.0186738
Heightened Def Con from 0.0193264 to 0.0193264
Heightened Def Con from 0.0193264 to 0.0193264
Heightened Def Con from 0.0196736 to 0.0196736
Heightened Def Con from 0.0196738 to 0.0196738
Heightened Def Con from 0.0203265 to 0.0203265
Heightened Def Con from 0.0203265 to 0.0203265
Heightened Def Con from 0.0203265 to 0.0203265
Heightened Def Con from 0.0206735 to 0.0206735
Heightened Def Con from 0.0206737 to 0.0206737
Heightened Def Con from 0.0213269 to 0.021327
Heightened Def Con from 0.021327 to 0.021327
Heightened Def Con from 0.0223309 to 0.0223309
Heightened Def Con from 0.0223309 to 0.0223309
Heightened Def Con from 0.0223309 to 0.0223309
Heightened Def Con from 0.0226692 to 0.0226692
Heightened Def Con from 0.023328 +to 0.023328
Heightened Def Con from 0.0236731 to 0.0236731
Heightened Def Con from 0.0236732 to 0.0236732
Heightened Def Con from 0.0236732 to 0.0236732
Heightened Def Con from 0.0243265 to 0.0243265
Heightened Def Con from 0.0243265 to 0.0243265
Heightened Def Con from 0.0243265 to 0.0243265
Heightened Def Con from 0.0246735 to 0.0246735
Heightened Def Con from 0.0246737 to 0.0246737
Heightened Def Con from 0.0253264 to 0.0253264
Heightened Def Con from 0.0253264 to 0.0253264
Heightened Def Con from 0.0253264 to 0.0253265
Heightened Def Con from 0.0256738 to 0.0256738
Heightened Def Con from 0.0263264 to 0.0263264
Heightened Def Con from 0.0263264 to 0.0263264
Heightened Def Con from 0.0263264 to 0.0263264
Heightened Def Con from 0.0266737 to 0.0266737
Heightened Def Con from 0.0266738 to 0.0266738
Heightened Def Con from 0.0273264 to 0.0273264
Heightened Def Con from 0.0273264 to 0.0273264
Heightened Def Con from 0.0276736 to 0.0276736
Heightened Def Con from 0.0276738 to 0.0276738
Heightened Def Con from 0.0276738 to 0.0276738
Heightened Def Con from 0.0283264 to 0.0283264
Heightened Def Con from 0.0283264 to 0.0283264
Heightened Def Con from 0.0283264 to 0.0283264
Heightened Def Con from 0.0286736 to 0.0286736
Heightened Def Con from 0.0286738 to 0.0286738
Heightened Def Con from 0.0286738 to 0.0286738
Heightened Def Con from 0.0293264 to 0.0293264
Heightened Def Con from 0.0296736 to 0.0296736
Heightened Def Con from 0.0296738 to 0.0296738
Heightened Def Con from 0.0303265 to 0.0303265
Heightened Def Con from 0.0303265 to 0.0303265
Heightened Def Con from 0.0306736 to 0.0306736
Heightened Def Con from 0.0313269 to 0.031327
Heightened Def Con from 0.031327 to 0.031327
Heightened Def Con from 0.0316722 to 0.0316722
Heightened Def Con from 0.0323309 to 0.0323309
Heightened Def Con from 0.0323309 to 0.0323309
Heightened Def Con from 0.0323309 to 0.0323309
Heightened Def Con from 0.0326692 to 0.0326692
Heightened Def Con from 0.0326692 to 0.0326692
Heightened Def Con from 0.033328 to 0.033328
Heightened Def Con from 0.033328 to 0.033328
Heightened Def Con from 0.033328 to 0.033328
Heightened Def Con from 0.0336732 to 0.0336732
Heightened Def Con from 0.0343265 to 0.0343265
Heightened Def Con from 0.0343265 to 0.0343265
Heightened Def Con from 0.0346737 to 0.0346737
Heightened Def Con from 0.0353264 to 0.0353264
Heightened Def Con from 0.0353264 to 0.0353264
Heightened Def Con from 0.0356737 to 0.0356737
Heightened Def Con from 0.0363264 +to 0.0363264
Heightened Def Con from 0.0366738 to 0.0366738
Heightened Def Con from 0.0373264 to 0.0373264
Heightened Def Con from 0.0373264 to 0.0373264
Heightened Def Con from 0.0373264 to 0.0373264
Heightened Def Con from 0.0376737 to 0.0376737
Heightened Def Con from 0.0376738 to 0.0376738
Heightened Def Con from 0.0383264 to 0.0383264
Heightened Def Con from 0.0383264 to 0.0383264
Heightened Def Con from 0.0383264 to 0.0383264
Heightened Def Con from 0.0383264 to 0.0383264
Heightened Def Con from 0.0386736 to 0.0386736
Heightened Def Con from 0.0386738 to 0.0386738
Heightened Def Con from 0.0386738 to 0.0386738
Heightened Def Con from 0.0393264 to 0.0393264
Heightened Def Con from 0.0393264 to 0.0393264
Heightened Def Con from 0.0393264 to 0.0393264
Heightened Def Con from 0.0396736 to 0.0396736
Heightened Def Con from 0.0396738 to 0.0396738
Heightened Def Con from 0.0403265 to 0.0403265
Heightened Def Con from 0.0403265 to 0.0403265
Heightened Def Con from 0.0406737 to 0.0406737
Heightened Def Con from 0.0406737 to 0.0406737
Heightened Def Con from 0.0413269 to 0.041327
Heightened Def Con from 0.041327 to 0.041327
Heightened Def Con from 0.041672 to 0.041672
Heightened Def Con from 0.0416722 to 0.0416722
Heightened Def Con from 0.0423308 to 0.0423308
Heightened Def Con from 0.0426692 to 0.0426692
Heightened Def Con from 0.0426693 to 0.0426693
Heightened Def Con from 0.043328 to 0.043328
Heightened Def Con from 0.043328 to 0.043328
Heightened Def Con from 0.043328 to 0.043328
Heightened Def Con from 0.0436731 to 0.0436731
Heightened Def Con from 0.0443265 to 0.0443265
Heightened Def Con from 0.0446736 to 0.0446736
Heightened Def Con from 0.0446737 to 0.0446737
Heightened Def Con from 0.0453264 to 0.0453264
Heightened Def Con from 0.0453264 to 0.0453264
Heightened Def Con from 0.0453264 to 0.0453265
Heightened Def Con from 0.0456736 to 0.0456736
Heightened Def Con from 0.0456738 to 0.0456738
Heightened Def Con from 0.0456738 to 0.0456738
Heightened Def Con from 0.0463264 to 0.0463264
Heightened Def Con from 0.0463264 to 0.0463264
Heightened Def Con from 0.0463264 to 0.0463264
Heightened Def Con from 0.0463264 to 0.0463264
Heightened Def Con from 0.0466737 to 0.0466737
Heightened Def Con from 0.0466738 to 0.0466738
Heightened Def Con from 0.0473264 to 0.0473264
Heightened Def Con from 0.0473264 to 0.0473264
Heightened Def Con from 0.0473264 to 0.0473264
Heightened Def Con from 0.0476737 to 0.0476737
Heightened Def Con from 0.0476738 to 0.0476738
Heightened Def Con from 0.0483264 to 0.0483264
Heightened Def Con from 0.0483264 to 0.0483264
Heightened Def Con from 0.0486737 to 0.0486737
Heightened Def Con from 0.0496738 to 0.0496738
Heightened Def Con from 0.0503265 to 0.0503265
Heightened Def Con from 0.0503265 to 0.0503265
Heightened Def Con from 0.0503265 to 0.0503265
Heightened Def Con from 0.0503265 to 0.0503265
Heightened Def Con from 0.0506737 to 0.0506737
Heightened Def Con from 0.0506737 to 0.0506737
Heightened Def Con from 0.0513269 to 0.051327
Heightened Def Con from 0.051327 to 0.051327
Heightened Def Con from 0.051327 to 0.051327
Heightened Def Con from 0.0516722 to 0.0516722
Heightened Def Con from 0.0516722 to 0.0516722
Heightened Def Con from 0.0516722 to 0.0516722
Heightened Def Con from 0.0523309 to 0.0523309
Heightened Def Con from 0.0523309 to 0.0523309
Heightened Def Con from 0.0526692 to 0.0526692
Heightened Def Con from 0.053328 to 0.053328
Heightened Def Con from 0.053328 +to 0.053328
Heightened Def Con from 0.0536731 to 0.0536731
Heightened Def Con from 0.0536732 to 0.0536732
Heightened Def Con from 0.0536732 to 0.0536732
Heightened Def Con from 0.0543265 to 0.0543265
Heightened Def Con from 0.0543265 +to 0.0543265
Heightened Def Con from 0.0546737 to 0.0546737
Heightened Def Con from 0.0553264 to 0.0553264
Heightened Def Con from 0.0556736 to 0.0556736
Heightened Def Con from 0.0556738 to 0.0556738
Heightened Def Con from 0.0563264 to 0.0563264
Heightened Def Con from 0.0563264 to 0.0563264
Heightened Def Con from 0.0563264 to 0.0563264
Heightened Def Con from 0.0566737 to 0.0566737
Heightened Def Con from 0.0566738 to 0.0566738
Heightened Def Con from 0.0566738 to 0.0566738
Heightened Def Con from 0.0573264 to 0.0573264
Heightened Def Con from 0.0573264 to 0.0573264
Heightened Def Con from 0.0573264 to 0.0573264
Heightened Def Con from 0.0573264 to 0.0573264
Heightened Def Con from 0.0576736 to 0.0576736
Heightened Def Con from 0.0576738 to 0.0576738
Heightened Def Con from 0.0583264 to 0.0583264
Heightened Def Con from 0.0583264 to 0.0583264
Heightened Def Con from 0.0586736 to 0.0586736
Heightened Def Con from 0.0593264 to 0.0593264
Heightened Def Con from 0.0593264 to 0.0593264
Heightened Def Con from 0.0593264 to 0.0593264
Heightened Def Con from 0.0596736 to 0.0596736
Heightened Def Con from 0.0596738 to 0.0596738
Heightened Def Con from 0.0596738 to 0.0596738
Heightened Def Con from 0.0603265 to 0.0603265
Heightened Def Con from 0.0603265 to 0.0603265
Heightened Def Con from 0.0603265 to 0.0603265
Heightened Def Con from 0.0606735 to 0.0606735
Heightened Def Con from 0.0606737 to 0.0606737
Heightened Def Con from 0.0606737 to 0.0606737
Heightened Def Con from 0.061327 to 0.061327
Heightened Def Con from 0.061327 to 0.061327
Heightened Def Con from 0.061672 to 0.0616721
Heightened Def Con from 0.0623309 to 0.0623309
Heightened Def Con from 0.0623309 to 0.0623309
Heightened Def Con from 0.0626692 to 0.0626692
Heightened Def Con from 0.063328 to 0.063328
Heightened Def Con from 0.063328 to 0.063328
Heightened Def Con from 0.063328 to 0.063328
Heightened Def Con from 0.063328 to 0.063328
Heightened Def Con from 0.0636731 to 0.0636731
Heightened Def Con from 0.0636732 to 0.0636732
Heightened Def Con from 0.0643265 to 0.0643265
Heightened Def Con from 0.0643265 to 0.0643265
Heightened Def Con from 0.0653264 to 0.0653264
Heightened Def Con from 0.0656736 to 0.0656737
Heightened Def Con from 0.0656738 to 0.0656738
Heightened Def Con from 0.0656738 to 0.0656738
Heightened Def Con from 0.0663264 to 0.0663264
Heightened Def Con from 0.0663264 +to 0.0663264
Heightened Def Con from 0.0666738 to 0.0666738
Heightened Def Con from 0.0666738 to 0.0666738
Heightened Def Con from 0.0673264 to 0.0673264
Heightened Def Con from 0.0673264 to 0.0673264
Heightened Def Con from 0.0676738 to 0.0676738
Heightened Def Con from 0.0683264 to 0.0683264
Heightened Def Con from 0.0686737 to 0.0686737
Heightened Def Con from 0.0686738 to 0.0686738
Heightened Def Con from 0.0693264 to 0.0693264
Heightened Def Con from 0.0693264 to 0.0693264
Heightened Def Con from 0.0703265 to 0.0703265
Heightened Def Con from 0.0703265 to 0.0703265
Heightened Def Con from 0.0703265 to 0.0703265
Heightened Def Con from 0.0706735 to 0.0706736
Heightened Def Con from 0.0706737 to 0.0706737
Heightened Def Con from 0.0706737 to 0.0706737
Heightened Def Con from 0.0713269 to 0.071327
Heightened Def Con from 0.071327 to 0.071327
Heightened Def Con from 0.071327 to 0.071327
Heightened Def Con from 0.071672 to 0.0716721
Heightened Def Con from 0.0716722 to 0.0716722
Heightened Def Con from 0.0723308 to 0.0723308
Heightened Def Con from 0.0723308 to 0.0723309
Heightened Def Con from 0.0726692 to 0.0726692
Heightened Def Con from 0.073328 to 0.073328
Heightened Def Con from 0.073328 to 0.073328
Heightened Def Con from 0.0736731 to 0.0736731
Heightened Def Con from 0.0736732 to 0.0736732
Heightened Def Con from 0.0743265 to 0.0743265
Heightened Def Con from 0.0743265 to 0.0743265
Heightened Def Con from 0.0743265 to 0.0743265
Heightened Def Con from 0.0746736 to 0.0746736
Heightened Def Con from 0.0746737 to 0.0746737
Heightened Def Con from 0.0746737 to 0.0746737
Heightened Def Con from 0.0753264 to 0.0753264
Heightened Def Con from 0.0753264 +to 0.0753265
Heightened Def Con from 0.0756736 to 0.0756736
Heightened Def Con from 0.0756737 to 0.0756737
Heightened Def Con from 0.0763264 to 0.0763264
Heightened Def Con from 0.0763264 to 0.0763264
Heightened Def Con from 0.0763264 to 0.0763264
Heightened Def Con from 0.0766738 to 0.0766738
Heightened Def Con from 0.0773264 to 0.0773264
Heightened Def Con from 0.0773264 to 0.0773264
Heightened Def Con from 0.0776737 to 0.0776737
Heightened Def Con from 0.0776738 to 0.0776738
Heightened Def Con from 0.0783264 to 0.0783264
Heightened Def Con from 0.0783264 to 0.0783264
Heightened Def Con from 0.0783264 to 0.0783264
Heightened Def Con from 0.0786737 to 0.0786737
Heightened Def Con from 0.0793264 to 0.0793264
Heightened Def Con from 0.0796736 to 0.0796736
Heightened Def Con from 0.0803265 +to 0.0803265
Heightened Def Con from 0.0806735 to 0.0806735
Heightened Def Con from 0.0806737 to 0.0806737
Heightened Def Con from 0.0806737 to 0.0806737
Heightened Def Con from 0.0813269 to 0.081327
Heightened Def Con from 0.081327 to 0.081327
Heightened Def Con from 0.081672 to 0.0816721
Heightened Def Con from 0.0823308 to 0.0823308
Heightened Def Con from 0.0826693 to 0.0826693
Heightened Def Con from 0.083328 to 0.083328
Heightened Def Con from 0.083328 to 0.083328
Heightened Def Con from 0.0836731 to 0.0836731
Heightened Def Con from 0.0836732 to 0.0836732
Heightened Def Con from 0.0843265 to 0.0843265
Heightened Def Con from 0.0843265 to 0.0843265
Heightened Def Con from 0.0846736 to 0.0846736
Heightened Def Con from 0.0846737 to 0.0846737
Heightened Def Con from 0.0846737 to 0.0846737
Heightened Def Con from 0.0853264 to 0.0853264
Heightened Def Con from 0.0853264 to 0.0853264
Heightened Def Con from 0.0853264 to 0.0853264
Heightened Def Con from 0.0853264 to 0.0853265
Heightened Def Con from 0.0856736 to 0.0856736
Heightened Def Con from 0.0856738 to 0.0856738
Heightened Def Con from 0.0863264 to 0.0863264
Heightened Def Con from 0.0863264 to 0.0863264
Heightened Def Con from 0.0863264 to 0.0863264
Heightened Def Con from 0.0866738 to 0.0866738
Heightened Def Con from 0.0873264 to 0.0873264
Heightened Def Con from 0.0873264 to 0.0873264
Heightened Def Con from 0.0876737 to 0.0876737
Heightened Def Con from 0.0883264 to 0.0883264
Heightened Def Con from 0.0883264 to 0.0883264
Heightened Def Con from 0.0883264 to 0.0883264
Heightened Def Con from 0.0886737 to 0.0886737
Heightened Def Con from 0.0893264 to 0.0893264
Heightened Def Con from 0.0893264 to 0.0893264
Heightened Def Con from 0.0893264 to 0.0893264
Heightened Def Con from 0.0896736 to 0.0896736
Heightened Def Con from 0.0903265 to 0.0903265
Heightened Def Con from 0.0903265 to 0.0903265
Heightened Def Con from 0.0903265 to 0.0903265
Heightened Def Con from 0.0906735 to 0.0906736
Heightened Def Con from 0.091672 to 0.091672
Heightened Def Con from 0.0923309 to 0.0923309
Heightened Def Con from 0.0923309 +to 0.0923309
Heightened Def Con from 0.093328 to 0.093328
Heightened Def Con from 0.093328 to 0.093328
Heightened Def Con from 0.0936732 to 0.0936732
Heightened Def Con from 0.0943265 to 0.0943265
Heightened Def Con from 0.0946735 to 0.0946735
Heightened Def Con from 0.0946737 to 0.0946737
Heightened Def Con from 0.0946737 to 0.0946737
Heightened Def Con from 0.0953264 to 0.0953264
Heightened Def Con from 0.0956738 to 0.0956738
Heightened Def Con from 0.0963264 to 0.0963264
Heightened Def Con from 0.0963264 to 0.0963264
Heightened Def Con from 0.0963264 to 0.0963264
Heightened Def Con from 0.0966738 to 0.0966738
Heightened Def Con from 0.0973264 to 0.0973264
Heightened Def Con from 0.0973264 to 0.0973264
Heightened Def Con from 0.0973264 to 0.0973264
Heightened Def Con from 0.0973264 to 0.0973264
Heightened Def Con from 0.0976737 to 0.0976737
Heightened Def Con from 0.0983264 to 0.0983264
Heightened Def Con from 0.0983264 to 0.0983264
Heightened Def Con from 0.0993264 to 0.0993264
Heightened Def Con from 0.0993264 to 0.0993264
Heightened Def Con from 0.0996737 to 0.0996737
Total elapsed time: 2.590 seconds.

