LTspice 24.0.12 for Windows
Circuit: * C:\Users\calvi\OneDrive - University of Pittsburgh\EGR - Undergraduate Research\Audio Processing\BSS_Microphone_System\Microphone\LTspice Circuit\Microphone input.asc
Start Time: Sat Jan 18 17:28:29 2025
solver = Normal
Maximum thread count: 12
tnom = 27
temp = 27
method = modified trap
Direct Newton iteration for .op point succeeded.
Total elapsed time: 0.068 seconds.

